OPT_V10/Two_days_first_run/powerflow_results_t47.txt
Pandapower Network Debug Info
==================================================

BUS:
       vm_pu  va_degree      p_mw    q_mvar
0   0.993290   0.113307  0.000849  0.000870
1   0.989110   0.180322  0.001225  0.001970
2   0.985244   0.229652  0.002169  0.002618
3   0.989559   0.192387  0.002453  0.003945
4   0.990305   0.201874  0.002719  0.004444
5   0.991873   0.193130  0.003199  0.006360
6   0.990170   0.214252  0.001003  0.001198
7   0.997316   0.025989  0.001950  0.002159
8   0.997907   0.037899  0.002196  0.003106
9   0.999836   0.000781  0.008403  0.008656
10  0.999841   0.000739  0.011915  0.007398
11  0.999857   0.000733  0.011899  0.012300
12  0.999773   0.001115  0.010650  0.005118
13  0.999746   0.001200  0.011224  0.008233
14  0.999754   0.001214  0.014637  0.013086
15  0.999932   0.000477  0.000000  0.000000
16  0.999932   0.000483  0.000000  0.000000
17  0.999778   0.001178  0.000000  0.000000
18  0.999777   0.001188  0.000000  0.000000
19  1.000000   0.000000 -0.039048 -0.042845
20  1.000000   0.000006  0.000000  0.000000
21  1.000000   0.000000 -0.047724 -0.048803
22  1.000000   0.000007  0.000000  0.000000
--------------------------------------------------

LINE:
    p_from_mw  q_from_mvar   p_to_mw  q_to_mvar         pl_mw       ql_mvar  i_from_ka   i_to_ka      i_ka  vm_from_pu  va_from_degree  vm_to_pu  va_to_degree  loading_percent
0    0.039038     0.038845 -0.039035  -0.038843  2.966625e-06  2.313127e-06   0.002120  0.002120  0.002120    1.000000        0.000006  0.999932      0.000477         0.921622
1    0.047714     0.044803 -0.047703  -0.044794  1.152339e-05  8.984973e-06   0.002519  0.002519  0.002519    1.000000        0.000007  0.999778      0.001178         1.095330
2    0.032220     0.028355 -0.032217  -0.028353  2.548579e-06  1.987169e-06   0.001652  0.001652  0.001652    0.999932        0.000477  0.999857      0.000733         0.718311
3    0.010650     0.005118 -0.010650  -0.005118  4.830253e-08  3.766228e-08   0.000455  0.000455  0.000455    0.999778        0.001178  0.999773      0.001115         0.197778
4    0.025862     0.021320 -0.025862  -0.021319  6.145356e-07  4.791635e-07   0.001290  0.001290  0.001290    0.999778        0.001178  0.999754      0.001214         0.561025
5    0.006805     0.009488 -0.006742  -0.009438  6.377345e-05  4.972521e-05   0.016854  0.016854  0.016854    0.999932        0.000483  0.993290      0.113307         7.327878
6    0.004263     0.007606 -0.004204  -0.007560  5.900506e-05  4.600722e-05   0.012588  0.012588  0.012588    0.999777        0.001188  0.991873      0.193130         5.472886
7    0.001956     0.002164 -0.001950  -0.002159  5.748983e-06  4.482577e-06   0.004210  0.004210  0.004210    0.999777        0.001188  0.997316      0.025989         1.830627
8    0.004962     0.007587 -0.004948  -0.007576  1.413789e-05  1.102355e-05   0.013088  0.013088  0.013088    0.999777        0.001188  0.997907      0.037899         5.690607
9    0.008403     0.008656 -0.008403  -0.008656  5.034574e-08  3.925540e-08   0.000464  0.000464  0.000464    0.999841        0.000739  0.999836      0.000781         0.201918
10   0.020319     0.016054 -0.020318  -0.016053  3.280483e-07  2.557847e-07   0.000997  0.000997  0.000997    0.999857        0.000733  0.999841      0.000739         0.433416
11   0.011224     0.008233 -0.011224  -0.008233  9.481287e-08  7.392716e-08   0.000536  0.000536  0.000536    0.999754        0.001214  0.999746      0.001200         0.233008
12  -0.003404    -0.004597  0.003424   0.004612  1.978578e-05  1.542730e-05   0.008347  0.008347  0.008347    0.989110        0.180322  0.993290      0.113307         3.629150
13  -0.002453    -0.003945  0.002468   0.003956  1.471508e-05  1.147359e-05   0.006776  0.006776  0.006776    0.989559        0.192387  0.993290      0.113307         2.946098
14  -0.002169    -0.002618  0.002179   0.002627  1.077128e-05  8.398544e-06   0.004981  0.004981  0.004981    0.985244        0.229652  0.989110      0.180322         2.165501
15   0.002753     0.004471 -0.002719  -0.004444  3.367752e-05  2.625892e-05   0.007594  0.007594  0.007594    0.997907        0.037899  0.990305      0.201874         3.301568
16  -0.001003    -0.001198  0.001005   0.001200  2.167548e-06  1.690073e-06   0.002277  0.002277  0.002277    0.990170        0.214252  0.991873      0.193130         0.990196
--------------------------------------------------

TRAFO:
    p_hv_mw  q_hv_mvar   p_lv_mw  q_lv_mvar    pl_mw  ql_mvar   i_hv_ka   i_lv_ka  vm_hv_pu  va_hv_degree  vm_lv_pu  va_lv_degree  loading_percent
0  0.006815   0.010488 -0.006805  -0.009488  0.00001    0.001  0.000481  0.016854  0.999932      0.000477  0.999932      0.000483         0.125084
1  0.011191   0.018356 -0.011181  -0.017357  0.00001    0.001  0.000828  0.029807  0.999778      0.001178  0.999777      0.001188         0.215032
2  0.039048   0.042845 -0.039038  -0.038845  0.00001    0.004  0.000478  0.002120  1.000000      0.000000  1.000000      0.000006         0.144924
3  0.047724   0.048803 -0.047714  -0.044803  0.00001    0.004  0.000563  0.002519  1.000000      0.000000  1.000000      0.000007         0.170649
--------------------------------------------------
